* NGSPICE file created from OTA_Telescopic_TOP_wp.ext - technology: ihp-sg13g2

.subckt OTA_Telescopic_TOP_wp VDD VSS VPout VPin VOUTP VP VN VOUTN VNin VNout CMFBin VREF CMFBout
X0 VOUTN.t104 a_n10106_3341# VDD.t99 VDD.t1 sg13_lv_pmos ad=0.2603p pd=1.75u as=0.2603p ps=1.75u w=1.37u l=0.35u
X1 a_n3162_51# VPin.t0 a_n1828_1772# VSS.t272 sg13_lv_nmos ad=0.209p pd=1.48u as=0.209p ps=1.48u w=1.1u l=0.15u
X2 VDD.t647 a_1220_1772# VOUTP.t72 VDD.t1 sg13_lv_pmos ad=0.4658p pd=3.42u as=0.2603p ps=1.75u w=1.37u l=0.35u
X3 VOUTP.t3 a_1220_1772# VDD.t763 VDD.t1 sg13_lv_pmos ad=0.2603p pd=1.75u as=0.2603p ps=1.75u w=1.37u l=0.35u
X4 a_1220_1772# a_n9221_n275# a_881_4136# VDD.t1 sg13_lv_pmos ad=0.7695p pd=4.43u as=0.7695p ps=4.43u w=4.05u l=0.5u
X5 a_n11264_n10009# VSS.t111 VSS.t110 rppd l=11.5u w=1u
X6 VDD.t165 a_n10106_3341# VOUTN.t55 VDD.t1 sg13_lv_pmos ad=0.2603p pd=1.75u as=0.2603p ps=1.75u w=1.37u l=0.35u
X7 a_881_4136# a_n9221_n275# a_1220_1772# VDD.t1 sg13_lv_pmos ad=1.377p pd=8.78u as=0.7695p ps=4.43u w=4.05u l=0.5u
X8 VDD.t466 a_n7040_n4573# a_n5006_n3441# VDD.t0 sg13_lv_pmos ad=0.19p pd=1.38u as=0.19p ps=1.38u w=1u l=0.7u
X9 a_n2002_n4396# a_n7040_n4573# VDD.t426 VDD.t0 sg13_lv_pmos ad=0.19p pd=1.38u as=0.19p ps=1.38u w=1u l=0.7u
X10 a_n3381_1772# a_n9221_n275# a_n10106_3341# VDD.t1 sg13_lv_pmos ad=0.7695p pd=4.43u as=0.7695p ps=4.43u w=4.05u l=0.5u
X11 VSS.t181 a_n10179_n275# VOUTP.t131 VSS.t112 sg13_lv_nmos ad=0.912p pd=5.18u as=0.912p ps=5.18u w=4.8u l=1.06u
X12 VOUTP.t44 a_1220_1772# VDD.t831 VDD.t1 sg13_lv_pmos ad=0.2603p pd=1.75u as=0.2603p ps=1.75u w=1.37u l=0.35u
X13 a_n1828_1772# VPin.t0 a_n3162_51# VSS.t271 sg13_lv_nmos ad=0.209p pd=1.48u as=0.209p ps=1.48u w=1.1u l=0.15u
X14 a_n2002_n4396# VOUTP.t157 CMFBout.t24 VDD.t0 sg13_lv_pmos ad=0.24415p pd=1.665u as=0.24415p ps=1.665u w=1.285u l=0.35u
X15 VOUTN.t90 a_n10106_3341# VDD.t82 VDD.t1 sg13_lv_pmos ad=0.2603p pd=1.75u as=0.4658p ps=3.42u w=1.37u l=0.35u
X16 a_n10106_3341# a_n9221_n275# a_n3381_1772# VDD.t1 sg13_lv_pmos ad=0.7695p pd=4.43u as=1.377p ps=8.78u w=4.05u l=0.5u
X17 VOUTP.t113 a_1220_1772# VDD.t799 VDD.t1 sg13_lv_pmos ad=0.2603p pd=1.75u as=0.2603p ps=1.75u w=1.37u l=0.35u
X18 VDD.t557 a_n7040_n4573# a_n5006_n3441# VDD.t0 sg13_lv_pmos ad=0.19p pd=1.38u as=0.19p ps=1.38u w=1u l=0.7u
X19 VDD.t781 a_1220_1772# VOUTP.t15 VDD.t1 sg13_lv_pmos ad=0.2603p pd=1.75u as=0.2603p ps=1.75u w=1.37u l=0.35u
X20 a_286_1773# VNin.t0 a_n3162_51# VSS.t246 sg13_lv_nmos ad=0.209p pd=1.48u as=0.374p ps=2.88u w=1.1u l=0.15u
X21 VOUTP.t111 a_1220_1772# VDD.t708 VDD.t1 sg13_lv_pmos ad=0.2603p pd=1.75u as=0.4658p ps=3.42u w=1.37u l=0.35u
X22 VDD.t385 a_n7040_n4573# a_n2002_n4396# VDD.t0 sg13_lv_pmos ad=0.19p pd=1.38u as=0.19p ps=1.38u w=1u l=0.7u
X23 VDD.t261 a_n7040_n4573# a_n7040_n4573# VDD.t0 sg13_lv_pmos ad=0.19p pd=1.38u as=0.19p ps=1.38u w=1u l=0.7u
X24 VOUTN.t146 a_n10179_n275# VSS.t147 VSS.t123 sg13_lv_nmos ad=0.912p pd=5.18u as=0.912p ps=5.18u w=4.8u l=1.06u
X25 VOUTP.t54 a_1220_1772# VDD.t675 VDD.t1 sg13_lv_pmos ad=0.2603p pd=1.75u as=0.2603p ps=1.75u w=1.37u l=0.35u
X26 VDD.t695 a_1220_1772# VOUTP.t83 VDD.t1 sg13_lv_pmos ad=0.2603p pd=1.75u as=0.2603p ps=1.75u w=1.37u l=0.35u
X27 VDD.t563 a_n7040_n4573# a_n5006_n3441# VDD.t0 sg13_lv_pmos ad=0.19p pd=1.38u as=0.19p ps=1.38u w=1u l=0.7u
X28 VDD.t527 a_n7040_n4573# a_n2002_n4396# VDD.t0 sg13_lv_pmos ad=0.19p pd=1.38u as=0.19p ps=1.38u w=1u l=0.7u
X29 a_n2002_n4396# a_n7040_n4573# VDD.t482 VDD.t0 sg13_lv_pmos ad=0.19p pd=1.38u as=0.19p ps=1.38u w=1u l=0.7u
X30 VOUTN.t61 a_n10106_3341# VDD.t39 VDD.t1 sg13_lv_pmos ad=0.2603p pd=1.75u as=0.2603p ps=1.75u w=1.37u l=0.35u
X31 VDD.t639 a_1220_1772# VOUTP.t25 VDD.t1 sg13_lv_pmos ad=0.2603p pd=1.75u as=0.2603p ps=1.75u w=1.37u l=0.35u
X32 VDD.t424 a_n7040_n4573# a_n2002_n4396# VDD.t0 sg13_lv_pmos ad=0.19p pd=1.38u as=0.19p ps=1.38u w=1u l=0.7u
X33 VDD.t717 a_1220_1772# VOUTP.t112 VDD.t1 sg13_lv_pmos ad=0.4658p pd=3.42u as=0.2603p ps=1.75u w=1.37u l=0.35u
X34 VDD.t751 a_1220_1772# VOUTP.t19 VDD.t1 sg13_lv_pmos ad=0.2603p pd=1.75u as=0.2603p ps=1.75u w=1.37u l=0.35u
X35 VDD.t895 a_n10013_2465# a_881_4136# VDD.t1 sg13_lv_pmos ad=1.33p pd=7.38u as=1.33p ps=7.38u w=7u l=0.7u
X36 VDD.t285 a_n7040_n4573# a_n7040_n4573# VDD.t0 sg13_lv_pmos ad=0.19p pd=1.38u as=0.19p ps=1.38u w=1u l=0.7u
X37 CMFBout.t10 VOUTN.t157 a_n5006_n3441# VDD.t0 sg13_lv_pmos ad=0.24415p pd=1.665u as=0.24415p ps=1.665u w=1.285u l=0.35u
X38 CMFBout.t28 VOUTP.t157 a_n2002_n4396# VDD.t0 sg13_lv_pmos ad=0.24415p pd=1.665u as=0.24415p ps=1.665u w=1.285u l=0.35u
X39 a_n2002_n4396# a_n7040_n4573# VDD.t579 VDD.t0 sg13_lv_pmos ad=0.19p pd=1.38u as=0.19p ps=1.38u w=1u l=0.7u
X40 VDD.t209 a_n10106_3341# VOUTN.t36 VDD.t1 sg13_lv_pmos ad=0.2603p pd=1.75u as=0.2603p ps=1.75u w=1.37u l=0.35u
X41 VOUTP.t143 a_n10179_n275# VSS.t225 VSS.t112 sg13_lv_nmos ad=0.912p pd=5.18u as=0.912p ps=5.18u w=4.8u l=1.06u
X42 VDD.t881 a_n10013_2465# a_881_4136# VDD.t1 sg13_lv_pmos ad=1.33p pd=7.38u as=1.33p ps=7.38u w=7u l=0.7u
X43 VOUTN.t122 a_n10106_3341# VDD.t193 VDD.t1 sg13_lv_pmos ad=0.2603p pd=1.75u as=0.2603p ps=1.75u w=1.37u l=0.35u
X44 a_1220_1772# a_n9221_n275# a_881_4136# VDD.t1 sg13_lv_pmos ad=0.7695p pd=4.43u as=0.7695p ps=4.43u w=4.05u l=0.5u
X45 a_286_1773# VNin.t0 a_n3162_51# VSS.t246 sg13_lv_nmos ad=0.209p pd=1.48u as=0.374p ps=2.88u w=1.1u l=0.15u
X46 VDD.t335 a_n7040_n4573# a_n2002_n4396# VDD.t0 sg13_lv_pmos ad=0.19p pd=1.38u as=0.19p ps=1.38u w=1u l=0.7u
X47 VSS.t241 a_n11196_n10045# a_n11196_n10045# VSS.t240 sg13_lv_nmos ad=2.04p pd=12.68u as=1.14p ps=6.38u w=6u l=6.4u
X48 a_n3381_1772# a_n9221_n275# a_n10106_3341# VDD.t1 sg13_lv_pmos ad=0.7695p pd=4.43u as=0.7695p ps=4.43u w=4.05u l=0.5u
X49 VSS.t219 a_n10179_n275# VOUTP.t132 VSS.t112 sg13_lv_nmos ad=0.912p pd=5.18u as=0.912p ps=5.18u w=4.8u l=1.06u
X50 VDD.t765 a_1220_1772# VOUTP.t3 VDD.t1 sg13_lv_pmos ad=0.2603p pd=1.75u as=0.2603p ps=1.75u w=1.37u l=0.35u
X51 a_286_1773# a_n8929_2739# a_1220_1772# VSS.t107 sg13_lv_nmos ad=0.646p pd=4.48u as=0.361p ps=2.28u w=1.9u l=0.16u
X52 a_n3162_51# CMFBin.t16 VSS.t31 VSS.t32 sg13_lv_nmos ad=0.6327p pd=3.71u as=0.6327p ps=3.71u w=3.33u l=0.2u
X53 a_36_n4396# VREF.t0 a_n2002_n4396# VDD.t0 sg13_lv_pmos ad=0.24415p pd=1.665u as=0.24415p ps=1.665u w=1.285u l=0.35u
X54 a_n1828_1772# VPin.t0 a_n3162_51# VSS.t273 sg13_lv_nmos ad=0.209p pd=1.48u as=0.209p ps=1.48u w=1.1u l=0.15u
X55 VDD.t373 a_n7040_n4573# a_n2002_n4396# VDD.t0 sg13_lv_pmos ad=0.19p pd=1.38u as=0.19p ps=1.38u w=1u l=0.7u
X56 VOUTN.t55 a_n10106_3341# VDD.t163 VDD.t1 sg13_lv_pmos ad=0.2603p pd=1.75u as=0.2603p ps=1.75u w=1.37u l=0.35u
X57 VSS.t136 a_n10179_n275# VOUTN.t132 VSS.t121 sg13_lv_nmos ad=0.912p pd=5.18u as=0.912p ps=5.18u w=4.8u l=1.06u
X58 VOUTN.t130 a_n10179_n275# VSS.t154 VSS.t117 sg13_lv_nmos ad=0.912p pd=5.18u as=0.912p ps=5.18u w=4.8u l=1.06u
X59 VDD.t709 a_1220_1772# VOUTP.t111 VDD.t1 sg13_lv_pmos ad=0.2603p pd=1.75u as=0.2603p ps=1.75u w=1.37u l=0.35u
X60 VDD.t512 a_n7040_n4573# a_n5006_n3441# VDD.t0 sg13_lv_pmos ad=0.19p pd=1.38u as=0.19p ps=1.38u w=1u l=0.7u
X61 VDD.t159 a_n10106_3341# VOUTN.t25 VDD.t1 sg13_lv_pmos ad=0.2603p pd=1.75u as=0.2603p ps=1.75u w=1.37u l=0.35u
X62 VDD.t187 a_n10106_3341# VOUTN.t17 VDD.t1 sg13_lv_pmos ad=0.2603p pd=1.75u as=0.2603p ps=1.75u w=1.37u l=0.35u
X63 VOUTP.t62 a_1220_1772# VDD.t619 VDD.t1 sg13_lv_pmos ad=0.2603p pd=1.75u as=0.2603p ps=1.75u w=1.37u l=0.35u
X64 a_n3162_51# CMFBin.t11 VSS.t46 VSS.t47 sg13_lv_nmos ad=0.6327p pd=3.71u as=0.6327p ps=3.71u w=3.33u l=0.2u
X65 a_n5006_n3441# a_n7040_n4573# VDD.t348 VDD.t0 sg13_lv_pmos ad=0.19p pd=1.38u as=0.34p ps=2.68u w=1u l=0.7u
X66 VOUTN.t89 a_n10106_3341# VDD.t119 VDD.t1 sg13_lv_pmos ad=0.2603p pd=1.75u as=0.2603p ps=1.75u w=1.37u l=0.35u
X67 a_1220_1772# a_n9221_n275# a_881_4136# VDD.t1 sg13_lv_pmos ad=0.7695p pd=4.43u as=1.377p ps=8.78u w=4.05u l=0.5u
X68 VDD.t71 a_n10106_3341# VOUTN.t80 VDD.t1 sg13_lv_pmos ad=0.4658p pd=3.42u as=0.2603p ps=1.75u w=1.37u l=0.35u
X69 a_n3162_51# VPin.t0 a_n1828_1772# VSS.t274 sg13_lv_nmos ad=0.374p pd=2.88u as=0.209p ps=1.48u w=1.1u l=0.15u
X70 VSS.t162 a_n10179_n275# VOUTN.t128 VSS.t127 sg13_lv_nmos ad=0.912p pd=5.18u as=0.912p ps=5.18u w=4.8u l=1.06u
X71 a_n3381_1772# a_n9221_n275# a_n10106_3341# VDD.t1 sg13_lv_pmos ad=1.377p pd=8.78u as=0.7695p ps=4.43u w=4.05u l=0.5u
X72 VDD.t493 a_n7040_n4573# a_n5006_n3441# VDD.t0 sg13_lv_pmos ad=0.19p pd=1.38u as=0.19p ps=1.38u w=1u l=0.7u
X73 a_n3381_1772# a_n10013_2465# VDD.t858 VDD.t1 sg13_lv_pmos ad=1.33p pd=7.38u as=2.38p ps=14.68u w=7u l=0.7u
X74 a_n7040_n4573# a_n7040_n4573# VDD.t255 VDD.t0 sg13_lv_pmos ad=0.19p pd=1.38u as=0.19p ps=1.38u w=1u l=0.7u
X75 a_36_n4396# a_36_n4396# VSS.t266 VSS.t267 sg13_lv_nmos ad=1.1322p pd=7.34u as=0.6327p ps=3.71u w=3.33u l=0.2u
X76 VDD.t412 a_n7040_n4573# a_n5006_n3441# VDD.t0 sg13_lv_pmos ad=0.19p pd=1.38u as=0.19p ps=1.38u w=1u l=0.7u
X77 a_n7040_n4573# a_n7040_n4573# VDD.t269 VDD.t0 sg13_lv_pmos ad=0.19p pd=1.38u as=0.19p ps=1.38u w=1u l=0.7u
X78 CMFBout.t18 VOUTP.t157 a_n2002_n4396# VDD.t0 sg13_lv_pmos ad=0.24415p pd=1.665u as=0.24415p ps=1.665u w=1.285u l=0.35u
X79 a_n2002_n4396# a_n7040_n4573# VDD.t531 VDD.t0 sg13_lv_pmos ad=0.19p pd=1.38u as=0.19p ps=1.38u w=1u l=0.7u
X80 VOUTP.t12 a_1220_1772# VDD.t819 VDD.t1 sg13_lv_pmos ad=0.2603p pd=1.75u as=0.2603p ps=1.75u w=1.37u l=0.35u
X81 VDD.t319 a_n7040_n4573# a_n5006_n3441# VDD.t0 sg13_lv_pmos ad=0.19p pd=1.38u as=0.19p ps=1.38u w=1u l=0.7u
X82 CMFBout.t7 VOUTN.t157 a_n5006_n3441# VDD.t0 sg13_lv_pmos ad=0.24415p pd=1.665u as=0.24415p ps=1.665u w=1.285u l=0.35u
X83 VDD.t193 a_n10106_3341# VOUTN.t46 VDD.t1 sg13_lv_pmos ad=0.2603p pd=1.75u as=0.2603p ps=1.75u w=1.37u l=0.35u
X84 VOUTP.t0 a_1220_1772# VDD.t728 VDD.t1 sg13_lv_pmos ad=0.2603p pd=1.75u as=0.4658p ps=3.42u w=1.37u l=0.35u
X85 VDD.t418 a_n7040_n4573# a_n5006_n3441# VDD.t0 sg13_lv_pmos ad=0.19p pd=1.38u as=0.19p ps=1.38u w=1u l=0.7u
X86 VDD.t905 a_n10013_2465# a_881_4136# VDD.t1 sg13_lv_pmos ad=2.38p pd=14.68u as=1.33p ps=7.38u w=7u l=0.7u
X87 VDD.t229 a_n10106_3341# VOUTN.t121 VDD.t1 sg13_lv_pmos ad=0.2603p pd=1.75u as=0.2603p ps=1.75u w=1.37u l=0.35u
X88 VDD.t302 a_n7040_n4573# a_n5006_n3441# VDD.t0 sg13_lv_pmos ad=0.19p pd=1.38u as=0.19p ps=1.38u w=1u l=0.7u
X89 VDD.t452 a_n7040_n4573# a_n5006_n3441# VDD.t0 sg13_lv_pmos ad=0.19p pd=1.38u as=0.19p ps=1.38u w=1u l=0.7u
X90 a_n2002_n4396# a_n7040_n4573# VDD.t438 VDD.t0 sg13_lv_pmos ad=0.19p pd=1.38u as=0.19p ps=1.38u w=1u l=0.7u
X91 VDD.t737 a_1220_1772# VOUTP.t104 VDD.t1 sg13_lv_pmos ad=0.4658p pd=3.42u as=0.2603p ps=1.75u w=1.37u l=0.35u
X92 VDD.t291 a_n7040_n4573# a_n7040_n4573# VDD.t0 sg13_lv_pmos ad=0.19p pd=1.38u as=0.19p ps=1.38u w=1u l=0.7u
X93 a_n5006_n3441# VREF.t0 a_36_n4396# VDD.t0 sg13_lv_pmos ad=0.24415p pd=1.665u as=0.4369p ps=3.25u w=1.285u l=0.35u
X94 VOUTN.t100 a_n10106_3341# VDD.t77 VDD.t1 sg13_lv_pmos ad=0.2603p pd=1.75u as=0.2603p ps=1.75u w=1.37u l=0.35u
X95 VDD.t163 a_n10106_3341# VOUTN.t54 VDD.t1 sg13_lv_pmos ad=0.2603p pd=1.75u as=0.2603p ps=1.75u w=1.37u l=0.35u
X96 a_n2002_n4396# a_n7040_n4573# VDD.t339 VDD.t0 sg13_lv_pmos ad=0.19p pd=1.38u as=0.19p ps=1.38u w=1u l=0.7u
X97 a_36_n4396# VREF.t0 a_n5006_n3441# VDD.t0 sg13_lv_pmos ad=0.24415p pd=1.665u as=0.24415p ps=1.665u w=1.285u l=0.35u
X98 VOUTN.t44 a_n10106_3341# VDD.t15 VDD.t1 sg13_lv_pmos ad=0.2603p pd=1.75u as=0.2603p ps=1.75u w=1.37u l=0.35u
X99 VDD.t863 a_n10013_2465# a_n3381_1772# VDD.t1 sg13_lv_pmos ad=2.38p pd=14.68u as=1.33p ps=7.38u w=7u l=0.7u
X100 a_n10013_2465# a_n10013_2465# VDD.t870 VDD.t1 sg13_lv_pmos ad=0.266p pd=1.78u as=0.476p ps=3.48u w=1.4u l=0.35u
X101 VSS.t191 a_n10179_n275# VOUTP.t148 VSS.t112 sg13_lv_nmos ad=0.912p pd=5.18u as=0.912p ps=5.18u w=4.8u l=1.06u
X102 a_n7040_n4573# a_n7040_n4573# VDD.t279 VDD.t0 sg13_lv_pmos ad=0.19p pd=1.38u as=0.19p ps=1.38u w=1u l=0.7u
X103 a_n5006_n3441# VOUTN.t157 CMFBout.t2 VDD.t0 sg13_lv_pmos ad=0.24415p pd=1.665u as=0.24415p ps=1.665u w=1.285u l=0.35u
X104 VOUTP.t89 a_1220_1772# VDD.t801 VDD.t1 sg13_lv_pmos ad=0.2603p pd=1.75u as=0.2603p ps=1.75u w=1.37u l=0.35u
X105 a_36_n4396# a_36_n4396# VSS.t260 VSS.t261 sg13_lv_nmos ad=0.6327p pd=3.71u as=0.6327p ps=3.71u w=3.33u l=0.2u
X106 VOUTN.t62 a_n10106_3341# VDD.t52 VDD.t1 sg13_lv_pmos ad=0.2603p pd=1.75u as=0.4658p ps=3.42u w=1.37u l=0.35u
X107 VDD.t783 a_1220_1772# VOUTP.t31 VDD.t1 sg13_lv_pmos ad=0.2603p pd=1.75u as=0.2603p ps=1.75u w=1.37u l=0.35u
X108 VOUTP.t27 a_1220_1772# VDD.t678 VDD.t1 sg13_lv_pmos ad=0.2603p pd=1.75u as=0.4658p ps=3.42u w=1.37u l=0.35u
X109 VSS.t243 a_n11196_n10045# a_n7040_n4573# VSS.t242 sg13_lv_nmos ad=2.125p pd=13.18u as=1.1875p ps=6.63u w=6.25u l=6.5u
X110 VOUTN.t17 a_n10106_3341# VDD.t185 VDD.t1 sg13_lv_pmos ad=0.2603p pd=1.75u as=0.2603p ps=1.75u w=1.37u l=0.35u
X111 a_n3162_51# VPin.t0 a_n1828_1772# VSS.t274 sg13_lv_nmos ad=0.374p pd=2.88u as=0.209p ps=1.48u w=1.1u l=0.15u
X112 a_n5006_n3441# a_n7040_n4573# VDD.t553 VDD.t0 sg13_lv_pmos ad=0.19p pd=1.38u as=0.19p ps=1.38u w=1u l=0.7u
X113 VOUTP.t72 a_1220_1772# VDD.t645 VDD.t1 sg13_lv_pmos ad=0.2603p pd=1.75u as=0.2603p ps=1.75u w=1.37u l=0.35u
X114 a_n2002_n4396# VREF.t0 a_36_n4396# VDD.t0 sg13_lv_pmos ad=0.24415p pd=1.665u as=0.24415p ps=1.665u w=1.285u l=0.35u
X115 VOUTP.t119 a_1220_1772# VDD.t601 VDD.t1 sg13_lv_pmos ad=0.2603p pd=1.75u as=0.2603p ps=1.75u w=1.37u l=0.35u
X116 VDD.t687 a_1220_1772# VOUTP.t59 VDD.t1 sg13_lv_pmos ad=0.4658p pd=3.42u as=0.2603p ps=1.75u w=1.37u l=0.35u
X117 VDD.t729 a_1220_1772# VOUTP.t0 VDD.t1 sg13_lv_pmos ad=0.2603p pd=1.75u as=0.2603p ps=1.75u w=1.37u l=0.35u
X118 VDD.t753 a_1220_1772# VOUTP.t80 VDD.t1 sg13_lv_pmos ad=0.2603p pd=1.75u as=0.2603p ps=1.75u w=1.37u l=0.35u
X119 VDD.t207 a_n10106_3341# VOUTN.t14 VDD.t1 sg13_lv_pmos ad=0.2603p pd=1.75u as=0.2603p ps=1.75u w=1.37u l=0.35u
X120 a_n3162_51# CMFBin.t15 VSS.t34 VSS.t35 sg13_lv_nmos ad=0.6327p pd=3.71u as=0.6327p ps=3.71u w=3.33u l=0.2u
X121 a_n2002_n4396# VREF.t0 a_36_n4396# VDD.t0 sg13_lv_pmos ad=0.24415p pd=1.665u as=0.24415p ps=1.665u w=1.285u l=0.35u
X122 a_n5006_n3441# a_n7040_n4573# VDD.t406 VDD.t0 sg13_lv_pmos ad=0.19p pd=1.38u as=0.19p ps=1.38u w=1u l=0.7u
X123 VOUTN.t110 a_n10106_3341# VDD.t27 VDD.t1 sg13_lv_pmos ad=0.2603p pd=1.75u as=0.2603p ps=1.75u w=1.37u l=0.35u
X124 VOUTN.t113 a_n10106_3341# VDD.t139 VDD.t1 sg13_lv_pmos ad=0.2603p pd=1.75u as=0.2603p ps=1.75u w=1.37u l=0.35u
X125 VDD.t886 a_n10013_2465# a_881_4136# VDD.t1 sg13_lv_pmos ad=1.33p pd=7.38u as=1.33p ps=7.38u w=7u l=0.7u
X126 VSS.t10 CMFBin.t23 a_n3162_51# VSS.t9 sg13_lv_nmos ad=0.6327p pd=3.71u as=0.6327p ps=3.71u w=3.33u l=0.2u
X127 VSS.t55 CMFBin.t8 a_n3162_51# VSS.t54 sg13_lv_nmos ad=0.6327p pd=3.71u as=0.6327p ps=3.71u w=3.33u l=0.2u
X128 a_n7040_n4573# a_n7040_n4573# VDD.t287 VDD.t0 sg13_lv_pmos ad=0.19p pd=1.38u as=0.19p ps=1.38u w=1u l=0.7u
X129 VDD.t583 a_n7040_n4573# a_n2002_n4396# VDD.t0 sg13_lv_pmos ad=0.19p pd=1.38u as=0.19p ps=1.38u w=1u l=0.7u
X130 VDD.t91 a_n10106_3341# VOUTN.t98 VDD.t1 sg13_lv_pmos ad=0.4658p pd=3.42u as=0.2603p ps=1.75u w=1.37u l=0.35u
X131 VOUTN.t74 a_n10106_3341# VDD.t122 VDD.t1 sg13_lv_pmos ad=0.2603p pd=1.75u as=0.4658p ps=3.42u w=1.37u l=0.35u
X132 VDD.t569 a_n7040_n4573# a_n2002_n4396# VDD.t0 sg13_lv_pmos ad=0.19p pd=1.38u as=0.19p ps=1.38u w=1u l=0.7u
X133 VOUTP.t138 a_n10179_n275# VSS.t181 VSS.t112 sg13_lv_nmos ad=0.912p pd=5.18u as=0.912p ps=5.18u w=4.8u l=1.06u
X134 a_n3381_1772# a_n10013_2465# VDD.t855 VDD.t1 sg13_lv_pmos ad=1.33p pd=7.38u as=1.33p ps=7.38u w=7u l=0.7u
X135 VDD.t416 a_n7040_n4573# a_n5006_n3441# VDD.t0 sg13_lv_pmos ad=0.19p pd=1.38u as=0.19p ps=1.38u w=1u l=0.7u
X136 VOUTP.t32 a_1220_1772# VDD.t783 VDD.t1 sg13_lv_pmos ad=0.2603p pd=1.75u as=0.2603p ps=1.75u w=1.37u l=0.35u
X137 a_n5006_n3441# a_n7040_n4573# VDD.t462 VDD.t0 sg13_lv_pmos ad=0.19p pd=1.38u as=0.19p ps=1.38u w=1u l=0.7u
X138 VOUTP.t112 a_1220_1772# VDD.t715 VDD.t1 sg13_lv_pmos ad=0.2603p pd=1.75u as=0.2603p ps=1.75u w=1.37u l=0.35u
X139 a_n5006_n3441# VREF.t0 a_36_n4396# VDD.t0 sg13_lv_pmos ad=0.24415p pd=1.665u as=0.24415p ps=1.665u w=1.285u l=0.35u
X140 VOUTN.t72 a_n10106_3341# VDD.t7 VDD.t1 sg13_lv_pmos ad=0.2603p pd=1.75u as=0.2603p ps=1.75u w=1.37u l=0.35u
X141 VSS.t147 a_n10179_n275# VOUTN.t145 VSS.t121 sg13_lv_nmos ad=0.912p pd=5.18u as=0.912p ps=5.18u w=4.8u l=1.06u
X142 VDD.t679 a_1220_1772# VOUTP.t27 VDD.t1 sg13_lv_pmos ad=0.2603p pd=1.75u as=0.2603p ps=1.75u w=1.37u l=0.35u
X143 VOUTP.t146 a_n10179_n275# VSS.t209 VSS.t112 sg13_lv_nmos ad=0.912p pd=5.18u as=0.912p ps=5.18u w=4.8u l=1.06u
X144 VDD.t157 a_n10106_3341# VOUTN.t53 VDD.t1 sg13_lv_pmos ad=0.2603p pd=1.75u as=0.2603p ps=1.75u w=1.37u l=0.35u
X145 VDD.t185 a_n10106_3341# VOUTN.t119 VDD.t1 sg13_lv_pmos ad=0.2603p pd=1.75u as=0.2603p ps=1.75u w=1.37u l=0.35u
X146 a_n5006_n3441# a_n7040_n4573# VDD.t359 VDD.t0 sg13_lv_pmos ad=0.19p pd=1.38u as=0.19p ps=1.38u w=1u l=0.7u
X147 VDD.t249 a_n10106_3341# VOUTN.t4 VDD.t1 sg13_lv_pmos ad=0.2603p pd=1.75u as=0.2603p ps=1.75u w=1.37u l=0.35u
X148 a_n5006_n3441# a_n7040_n4573# VDD.t508 VDD.t0 sg13_lv_pmos ad=0.19p pd=1.38u as=0.19p ps=1.38u w=1u l=0.7u
X149 VOUTP.t82 a_1220_1772# VDD.t753 VDD.t1 sg13_lv_pmos ad=0.2603p pd=1.75u as=0.2603p ps=1.75u w=1.37u l=0.35u
X150 a_n7040_n4573# a_n7040_n4573# VDD.t257 VDD.t0 sg13_lv_pmos ad=0.19p pd=1.38u as=0.19p ps=1.38u w=1u l=0.7u
X151 a_n11264_n10009# a_n11196_n10045# a_n11079_n3221# VSS.t245 sg13_lv_nmos ad=2.04p pd=12.68u as=1.14p ps=6.38u w=6u l=6.4u
X152 a_n2002_n4396# a_n7040_n4573# VDD.t434 VDD.t0 sg13_lv_pmos ad=0.19p pd=1.38u as=0.19p ps=1.38u w=1u l=0.7u
X153 VOUTN.t107 a_n10106_3341# VDD.t12 VDD.t1 sg13_lv_pmos ad=0.2603p pd=1.75u as=0.4658p ps=3.42u w=1.37u l=0.35u
X154 VDD.t859 a_n10013_2465# a_n3381_1772# VDD.t1 sg13_lv_pmos ad=1.33p pd=7.38u as=1.33p ps=7.38u w=7u l=0.7u
X155 VDD.t613 a_1220_1772# VOUTP.t55 VDD.t1 sg13_lv_pmos ad=0.2603p pd=1.75u as=0.2603p ps=1.75u w=1.37u l=0.35u
X156 VSS.t260 a_36_n4396# a_36_n4396# VSS.t259 sg13_lv_nmos ad=0.6327p pd=3.71u as=0.6327p ps=3.71u w=3.33u l=0.2u
X157 VOUTP.t109 a_1220_1772# VDD.t821 VDD.t1 sg13_lv_pmos ad=0.2603p pd=1.75u as=0.2603p ps=1.75u w=1.37u l=0.35u
X158 VDD.t393 a_n7040_n4573# a_n2002_n4396# VDD.t0 sg13_lv_pmos ad=0.19p pd=1.38u as=0.19p ps=1.38u w=1u l=0.7u
X159 VSS.t154 a_n10179_n275# VOUTN.t152 VSS.t115 sg13_lv_nmos ad=0.912p pd=5.18u as=1.632p ps=10.28u w=4.8u l=1.06u
X160 VOUTP.t124 a_1220_1772# VDD.t603 VDD.t1 sg13_lv_pmos ad=0.2603p pd=1.75u as=0.2603p ps=1.75u w=1.37u l=0.35u
X161 VDD.t771 a_1220_1772# VOUTP.t48 VDD.t1 sg13_lv_pmos ad=0.2603p pd=1.75u as=0.2603p ps=1.75u w=1.37u l=0.35u
X162 a_n11264_n10009# a_n11196_n10045# a_n11079_n3221# VSS.t245 sg13_lv_nmos ad=2.04p pd=12.68u as=1.14p ps=6.38u w=6u l=6.4u
X163 VOUTP.t5 a_1220_1772# VDD.t698 VDD.t1 sg13_lv_pmos ad=0.2603p pd=1.75u as=0.4658p ps=3.42u w=1.37u l=0.35u
X164 VDD.t535 a_n7040_n4573# a_n2002_n4396# VDD.t0 sg13_lv_pmos ad=0.19p pd=1.38u as=0.19p ps=1.38u w=1u l=0.7u
X165 VDD.t521 a_n7040_n4573# a_n2002_n4396# VDD.t0 sg13_lv_pmos ad=0.19p pd=1.38u as=0.19p ps=1.38u w=1u l=0.7u
X166 VOUTN.t14 a_n10106_3341# VDD.t205 VDD.t1 sg13_lv_pmos ad=0.2603p pd=1.75u as=0.2603p ps=1.75u w=1.37u l=0.35u
X167 VDD.t227 a_n10106_3341# VOUTN.t35 VDD.t1 sg13_lv_pmos ad=0.2603p pd=1.75u as=0.2603p ps=1.75u w=1.37u l=0.35u
X168 a_n7040_n4573# a_n7040_n4573# VDD.t273 VDD.t0 sg13_lv_pmos ad=0.19p pd=1.38u as=0.19p ps=1.38u w=1u l=0.7u
X169 a_n5006_n3441# a_n7040_n4573# VDD.t315 VDD.t0 sg13_lv_pmos ad=0.19p pd=1.38u as=0.19p ps=1.38u w=1u l=0.7u
X170 a_n11196_n10045# a_n11079_n3221# VDD.t907 VDD.t906 sg13_lv_pmos ad=1.14p pd=6.38u as=2.04p ps=12.68u w=6u l=2.5u
X171 VOUTN.t132 a_n10179_n275# VSS.t134 VSS.t120 sg13_lv_nmos ad=0.912p pd=5.18u as=0.912p ps=5.18u w=4.8u l=1.06u
X172 a_881_4136# a_n10013_2465# VDD.t903 VDD.t1 sg13_lv_pmos ad=1.33p pd=7.38u as=1.33p ps=7.38u w=7u l=0.7u
X173 a_n2002_n4396# a_n7040_n4573# VDD.t573 VDD.t0 sg13_lv_pmos ad=0.19p pd=1.38u as=0.19p ps=1.38u w=1u l=0.7u
X174 VOUTN.t16 a_n10106_3341# VDD.t47 VDD.t1 sg13_lv_pmos ad=0.2603p pd=1.75u as=0.2603p ps=1.75u w=1.37u l=0.35u
X175 VDD.t593 a_1220_1772# VOUTP.t8 VDD.t1 sg13_lv_pmos ad=0.2603p pd=1.75u as=0.2603p ps=1.75u w=1.37u l=0.35u
X176 VDD.t707 a_1220_1772# VOUTP.t64 VDD.t1 sg13_lv_pmos ad=0.4658p pd=3.42u as=0.2603p ps=1.75u w=1.37u l=0.35u
X177 VOUTN.t128 a_n10179_n275# VSS.t160 VSS.t126 sg13_lv_nmos ad=0.912p pd=5.18u as=0.912p ps=5.18u w=4.8u l=1.06u
X178 VDD.t785 a_1220_1772# VOUTP.t32 VDD.t1 sg13_lv_pmos ad=0.2603p pd=1.75u as=0.2603p ps=1.75u w=1.37u l=0.35u
X179 a_n3162_51# CMFBin.t12 VSS.t43 VSS.t44 sg13_lv_nmos ad=0.6327p pd=3.71u as=0.6327p ps=3.71u w=3.33u l=0.2u
X180 VDD.t330 a_n7040_n4573# a_n2002_n4396# VDD.t0 sg13_lv_pmos ad=0.19p pd=1.38u as=0.19p ps=1.38u w=1u l=0.7u
X181 VDD.t343 a_n7040_n4573# a_n2002_n4396# VDD.t0 sg13_lv_pmos ad=0.19p pd=1.38u as=0.19p ps=1.38u w=1u l=0.7u
X182 a_n5006_n3441# a_n7040_n4573# VDD.t541 VDD.t0 sg13_lv_pmos ad=0.19p pd=1.38u as=0.19p ps=1.38u w=1u l=0.7u
X183 VOUTN.t70 a_n10106_3341# VDD.t142 VDD.t1 sg13_lv_pmos ad=0.2603p pd=1.75u as=0.4658p ps=3.42u w=1.37u l=0.35u
X184 VDD.t627 a_1220_1772# VOUTP.t70 VDD.t1 sg13_lv_pmos ad=0.4658p pd=3.42u as=0.2603p ps=1.75u w=1.37u l=0.35u
X185 a_881_4136# a_n9221_n275# a_1220_1772# VDD.t1 sg13_lv_pmos ad=0.7695p pd=4.43u as=0.7695p ps=4.43u w=4.05u l=0.5u
X186 a_n5006_n3441# VOUTN.t157 CMFBout.t13 VDD.t0 sg13_lv_pmos ad=0.24415p pd=1.665u as=0.24415p ps=1.665u w=1.285u l=0.35u
X187 VOUTN.t53 a_n10106_3341# VDD.t155 VDD.t1 sg13_lv_pmos ad=0.2603p pd=1.75u as=0.2603p ps=1.75u w=1.37u l=0.35u
X188 VOUTN.t119 a_n10106_3341# VDD.t183 VDD.t1 sg13_lv_pmos ad=0.2603p pd=1.75u as=0.2603p ps=1.75u w=1.37u l=0.35u
X189 VSS.t13 CMFBin.t22 a_n3162_51# VSS.t12 sg13_lv_nmos ad=0.6327p pd=3.71u as=0.6327p ps=3.71u w=3.33u l=0.2u
X190 a_n2002_n4396# VOUTP.t157 CMFBout.t28 VDD.t0 sg13_lv_pmos ad=0.24415p pd=1.665u as=0.24415p ps=1.665u w=1.285u l=0.35u
X191 a_n10106_3341# a_n9221_n275# a_n3381_1772# VDD.t1 sg13_lv_pmos ad=0.7695p pd=4.43u as=0.7695p ps=4.43u w=4.05u l=0.5u
X192 VOUTP.t116 a_1220_1772# VDD.t659 VDD.t1 sg13_lv_pmos ad=0.2603p pd=1.75u as=0.2603p ps=1.75u w=1.37u l=0.35u
X193 VOUTP.t104 a_1220_1772# VDD.t735 VDD.t1 sg13_lv_pmos ad=0.2603p pd=1.75u as=0.2603p ps=1.75u w=1.37u l=0.35u
X194 VDD.t755 a_1220_1772# VOUTP.t82 VDD.t1 sg13_lv_pmos ad=0.2603p pd=1.75u as=0.2603p ps=1.75u w=1.37u l=0.35u
X195 a_286_1773# a_n8929_2739# a_1220_1772# VSS.t103 sg13_lv_nmos ad=0.361p pd=2.28u as=0.361p ps=2.28u w=1.9u l=0.16u
X196 a_36_n4396# VREF.t0 a_n5006_n3441# VDD.t0 sg13_lv_pmos ad=0.24415p pd=1.665u as=0.24415p ps=1.665u w=1.285u l=0.35u
X197 VDD.t205 a_n10106_3341# VOUTN.t13 VDD.t1 sg13_lv_pmos ad=0.2603p pd=1.75u as=0.2603p ps=1.75u w=1.37u l=0.35u
X198 VDD.t699 a_1220_1772# VOUTP.t5 VDD.t1 sg13_lv_pmos ad=0.2603p pd=1.75u as=0.2603p ps=1.75u w=1.37u l=0.35u
X199 a_881_4136# a_n9221_n275# a_1220_1772# VDD.t1 sg13_lv_pmos ad=0.7695p pd=4.43u as=0.7695p ps=4.43u w=4.05u l=0.5u
X200 a_1220_1772# a_n9221_n275# a_881_4136# VDD.t1 sg13_lv_pmos ad=0.7695p pd=4.43u as=0.7695p ps=4.43u w=4.05u l=0.5u
X201 a_n5006_n3441# VREF.t0 a_36_n4396# VDD.t0 sg13_lv_pmos ad=0.24415p pd=1.665u as=0.24415p ps=1.665u w=1.285u l=0.35u
X202 VOUTN.t87 a_n10106_3341# VDD.t109 VDD.t1 sg13_lv_pmos ad=0.2603p pd=1.75u as=0.2603p ps=1.75u w=1.37u l=0.35u
X203 a_n10106_3341# a_n9221_n275# a_n3381_1772# VDD.t1 sg13_lv_pmos ad=0.7695p pd=4.43u as=0.7695p ps=4.43u w=4.05u l=0.5u
X204 VDD.t571 a_n7040_n4573# a_n2002_n4396# VDD.t0 sg13_lv_pmos ad=0.19p pd=1.38u as=0.19p ps=1.38u w=1u l=0.7u
X205 VDD.t61 a_n10106_3341# VOUTN.t59 VDD.t1 sg13_lv_pmos ad=0.4658p pd=3.42u as=0.2603p ps=1.75u w=1.37u l=0.35u
X206 a_n3381_1772# a_n9221_n275# a_n10106_3341# VDD.t1 sg13_lv_pmos ad=0.7695p pd=4.43u as=0.7695p ps=4.43u w=4.05u l=0.5u
X207 a_n3162_51# CMFBin.t5 VSS.t64 VSS.t65 sg13_lv_nmos ad=0.6327p pd=3.71u as=0.6327p ps=3.71u w=3.33u l=0.2u
X208 VSS.t92 CMFBout.t30 CMFBout.t33 VSS.t91 sg13_lv_nmos ad=0.6327p pd=3.71u as=0.6327p ps=3.71u w=3.33u l=0.2u
X209 VDD.t404 a_n7040_n4573# a_n5006_n3441# VDD.t0 sg13_lv_pmos ad=0.19p pd=1.38u as=0.19p ps=1.38u w=1u l=0.7u
X210 VOUTN.t76 a_n10106_3341# VDD.t92 VDD.t1 sg13_lv_pmos ad=0.2603p pd=1.75u as=0.4658p ps=3.42u w=1.37u l=0.35u
X211 VOUTP.t149 a_n10179_n275# VSS.t191 VSS.t112 sg13_lv_nmos ad=0.912p pd=5.18u as=0.912p ps=5.18u w=4.8u l=1.06u
X212 a_n2002_n4396# a_n7040_n4573# VDD.t525 VDD.t0 sg13_lv_pmos ad=0.19p pd=1.38u as=0.19p ps=1.38u w=1u l=0.7u
X213 VOUTN.t35 a_n10106_3341# VDD.t225 VDD.t1 sg13_lv_pmos ad=0.2603p pd=1.75u as=0.2603p ps=1.75u w=1.37u l=0.35u
X214 a_n2002_n4396# a_n7040_n4573# VDD.t471 VDD.t0 sg13_lv_pmos ad=0.19p pd=1.38u as=0.19p ps=1.38u w=1u l=0.7u
X215 a_286_1773# a_n8929_2739# a_1220_1772# VSS.t107 sg13_lv_nmos ad=0.646p pd=4.48u as=0.361p ps=2.28u w=1.9u l=0.16u
X216 VDD.t183 a_n10106_3341# VOUTN.t118 VDD.t1 sg13_lv_pmos ad=0.2603p pd=1.75u as=0.2603p ps=1.75u w=1.37u l=0.35u
X217 VOUTP.t59 a_1220_1772# VDD.t685 VDD.t1 sg13_lv_pmos ad=0.2603p pd=1.75u as=0.2603p ps=1.75u w=1.37u l=0.35u
X218 VDD.t791 a_1220_1772# VOUTP.t35 VDD.t1 sg13_lv_pmos ad=0.2603p pd=1.75u as=0.2603p ps=1.75u w=1.37u l=0.35u
X219 a_n2002_n4396# a_n7040_n4573# VDD.t563 VDD.t0 sg13_lv_pmos ad=0.19p pd=1.38u as=0.19p ps=1.38u w=1u l=0.7u
X220 a_n5006_n3441# a_n7040_n4573# VDD.t496 VDD.t0 sg13_lv_pmos ad=0.19p pd=1.38u as=0.19p ps=1.38u w=1u l=0.7u
X221 VDD.t155 a_n10106_3341# VOUTN.t24 VDD.t1 sg13_lv_pmos ad=0.2603p pd=1.75u as=0.2603p ps=1.75u w=1.37u l=0.35u
X222 VOUTP.t41 a_1220_1772# VDD.t718 VDD.t1 sg13_lv_pmos ad=0.2603p pd=1.75u as=0.4658p ps=3.42u w=1.37u l=0.35u
X223 VSS.t40 CMFBin.t13 a_n3162_51# VSS.t39 sg13_lv_nmos ad=0.6327p pd=3.71u as=0.6327p ps=3.71u w=3.33u l=0.2u
X224 a_36_n4396# VREF.t0 a_n2002_n4396# VDD.t0 sg13_lv_pmos ad=0.24415p pd=1.665u as=0.24415p ps=1.665u w=1.285u l=0.35u
X225 VDD.t460 a_n7040_n4573# a_n5006_n3441# VDD.t0 sg13_lv_pmos ad=0.19p pd=1.38u as=0.19p ps=1.38u w=1u l=0.7u
X226 VDD.t247 a_n10106_3341# VOUTN.t3 VDD.t1 sg13_lv_pmos ad=0.2603p pd=1.75u as=0.2603p ps=1.75u w=1.37u l=0.35u
X227 a_881_4136# a_n10013_2465# VDD.t900 VDD.t1 sg13_lv_pmos ad=1.33p pd=7.38u as=2.38p ps=14.68u w=7u l=0.7u
X228 VOUTN.t64 a_n10106_3341# VDD.t179 VDD.t1 sg13_lv_pmos ad=0.2603p pd=1.75u as=0.2603p ps=1.75u w=1.37u l=0.35u
X229 VDD.t219 a_n10106_3341# VOUTN.t108 VDD.t1 sg13_lv_pmos ad=0.2603p pd=1.75u as=0.2603p ps=1.75u w=1.37u l=0.35u
X230 a_n1828_1772# a_n8929_2739# a_n10106_3341# VSS.t97 sg13_lv_nmos ad=0.361p pd=2.28u as=0.361p ps=2.28u w=1.9u l=0.16u
X231 VDD.t357 a_n7040_n4573# a_n5006_n3441# VDD.t0 sg13_lv_pmos ad=0.19p pd=1.38u as=0.19p ps=1.38u w=1u l=0.7u
X232 VDD.t551 a_n7040_n4573# a_n5006_n3441# VDD.t0 sg13_lv_pmos ad=0.19p pd=1.38u as=0.19p ps=1.38u w=1u l=0.7u
X233 a_881_4136# a_n9221_n275# a_1220_1772# VDD.t1 sg13_lv_pmos ad=0.7695p pd=4.43u as=0.7695p ps=4.43u w=4.05u l=0.5u
X234 VOUTP.t134 a_n10179_n275# VSS.t216 VSS.t112 sg13_lv_nmos ad=1.632p pd=10.28u as=0.912p ps=5.18u w=4.8u l=1.06u
X235 a_n2002_n4396# a_n7040_n4573# VDD.t333 VDD.t0 sg13_lv_pmos ad=0.19p pd=1.38u as=0.19p ps=1.38u w=1u l=0.7u
X236 VDD.t131 a_n10106_3341# VOUTN.t67 VDD.t1 sg13_lv_pmos ad=0.4658p pd=3.42u as=0.2603p ps=1.75u w=1.37u l=0.35u
X237 VDD.t727 a_1220_1772# VOUTP.t24 VDD.t1 sg13_lv_pmos ad=0.4658p pd=3.42u as=0.2603p ps=1.75u w=1.37u l=0.35u
X238 a_n10106_3341# a_n9221_n275# a_n3381_1772# VDD.t1 sg13_lv_pmos ad=0.7695p pd=4.43u as=0.7695p ps=4.43u w=4.05u l=0.5u
X239 VDD.t37 a_n10106_3341# VOUTN.t77 VDD.t1 sg13_lv_pmos ad=0.2603p pd=1.75u as=0.2603p ps=1.75u w=1.37u l=0.35u
X240 a_n3381_1772# a_n10013_2465# VDD.t859 VDD.t1 sg13_lv_pmos ad=1.33p pd=7.38u as=1.33p ps=7.38u w=7u l=0.7u
X241 a_1220_1772# a_n8929_2739# a_286_1773# VSS.t102 sg13_lv_nmos ad=0.361p pd=2.28u as=0.646p ps=4.48u w=1.9u l=0.16u
X242 a_n3162_51# CMFBin.t14 VSS.t37 VSS.t38 sg13_lv_nmos ad=0.6327p pd=3.71u as=0.6327p ps=3.71u w=3.33u l=0.2u
X243 a_n5006_n3441# a_n7040_n4573# VDD.t303 VDD.t0 sg13_lv_pmos ad=0.19p pd=1.38u as=0.19p ps=1.38u w=1u l=0.7u
X244 a_n2002_n4396# a_n7040_n4573# VDD.t488 VDD.t0 sg13_lv_pmos ad=0.19p pd=1.38u as=0.19p ps=1.38u w=1u l=0.7u
X245 VDD.t381 a_n7040_n4573# a_n2002_n4396# VDD.t0 sg13_lv_pmos ad=0.19p pd=1.38u as=0.19p ps=1.38u w=1u l=0.7u
X246 VSS.t183 a_n10179_n275# VOUTP.t138 VSS.t112 sg13_lv_nmos ad=0.912p pd=5.18u as=0.912p ps=5.18u w=4.8u l=1.06u
X247 VDD.t773 a_1220_1772# VOUTP.t36 VDD.t1 sg13_lv_pmos ad=0.2603p pd=1.75u as=0.2603p ps=1.75u w=1.37u l=0.35u
X248 VDD.t741 a_1220_1772# VOUTP.t39 VDD.t1 sg13_lv_pmos ad=0.2603p pd=1.75u as=0.2603p ps=1.75u w=1.37u l=0.35u
X249 VDD.t523 a_n7040_n4573# a_n2002_n4396# VDD.t0 sg13_lv_pmos ad=0.19p pd=1.38u as=0.19p ps=1.38u w=1u l=0.7u
X250 VOUTN.t13 a_n10106_3341# VDD.t203 VDD.t1 sg13_lv_pmos ad=0.2603p pd=1.75u as=0.2603p ps=1.75u w=1.37u l=0.35u
X251 VDD.t225 a_n10106_3341# VOUTN.t34 VDD.t1 sg13_lv_pmos ad=0.2603p pd=1.75u as=0.2603p ps=1.75u w=1.37u l=0.35u
X252 a_n3162_51# VNin.t0 a_286_1773# VSS.t251 sg13_lv_nmos ad=0.374p pd=2.88u as=0.209p ps=1.48u w=1.1u l=0.15u
X253 VOUTN.t145 a_n10179_n275# VSS.t145 VSS.t120 sg13_lv_nmos ad=0.912p pd=5.18u as=0.912p ps=5.18u w=4.8u l=1.06u
X254 VOUTP.t141 a_n10179_n275# VSS.t176 VSS.t112 sg13_lv_nmos ad=0.912p pd=5.18u as=1.632p ps=10.28u w=4.8u l=1.06u
X255 VSS.t211 a_n10179_n275# VOUTP.t146 VSS.t112 sg13_lv_nmos ad=0.912p pd=5.18u as=0.912p ps=5.18u w=4.8u l=1.06u
X256 VSS.t266 a_36_n4396# a_36_n4396# VSS.t265 sg13_lv_nmos ad=0.6327p pd=3.71u as=0.6327p ps=3.71u w=3.33u l=0.2u
X257 a_n5006_n3441# a_n7040_n4573# VDD.t412 VDD.t0 sg13_lv_pmos ad=0.19p pd=1.38u as=0.19p ps=1.38u w=1u l=0.7u
X258 VDD.t719 a_1220_1772# VOUTP.t41 VDD.t1 sg13_lv_pmos ad=0.2603p pd=1.75u as=0.2603p ps=1.75u w=1.37u l=0.35u
X259 VDD.t908 a_n11079_n3221# a_n11196_n10045# VDD.t906 sg13_lv_pmos ad=1.14p pd=6.38u as=1.14p ps=6.38u w=6u l=2.5u
X260 VSS.t119 a_n10179_n275# VOUTN.t153 VSS.t118 sg13_lv_nmos ad=0.912p pd=5.18u as=0.912p ps=5.18u w=4.8u l=1.06u